RUNSPEC
DIMENS
65 119 43
/

GRID

INCLUDE
SLEIPNER.DATA
/