-- *************************************************************************************************
-- ************************* Template File to Set up Simple Test Cases *****************************
-- *************************************************************************************************

RUNSPEC
-- *************************************************************************************************
-- BASIC SIMULATION INPUT
-- This section contains essential information such as grid dimensions, phases present, miscibility
-- of pahses, etc.
-- *************************************************************************************************

-- Deck title
----------------------------------------------------------------------------------------------------
TITLE
   SIMPLE 1D
----------------------------------------------------------------------------------------------------

-- Unit system
----------------------------------------------------------------------------------------------------
-- METRIC: (A)metric(an) units (default)
-- FIELD : Oil and Gas industry units
-- LAB   : Lab units
-- PVT-M : PVT-(a)metric(an) units
----------------------------------------------------------------------------------------------------
   METRIC
----------------------------------------------------------------------------------------------------

-- Grid dimensions
----------------------------------------------------------------------------------------------------
DIMENS
-- 1: Number of grid blocks in x direction
-- 1: Number of grid blocks in y direction
-- 1: Number of grid blocks in z direction
----------------------------------------------------------------------------------------------------
-- |  1 | 2 | 3 |
     10   1   1 /
----------------------------------------------------------------------------------------------------

-- Number of equilibriated regions
----------------------------------------------------------------------------------------------------
--EQLDIMS
---- 1: Number of equilibriated regions
----------------------------------------------------------------------------------------------------
---- | 1 |
--   1 /
----------------------------------------------------------------------------------------------------

-- PVT table dimensions
----------------------------------------------------------------------------------------------------
TABDIMS
-- Number of PVT tables is inferred from the TABDIMS keyword. When no data is included in the
-- keyword the default values are used.
----------------------------------------------------------------------------------------------------
/
----------------------------------------------------------------------------------------------------

-- Phases present + dissolved gas/vaporized oil
----------------------------------------------------------------------------------------------------
-- WATER : Water phase
-- OIL   : Oil pahse
-- GAS   : Gas pahse
-- DISGAS: Dissolved gas
-- VAPOIL: Vaporized oil
----------------------------------------------------------------------------------------------------
  OIL
  GAS
  WATER
--  DISGAS
----------------------------------------------------------------------------------------------------

-- Enable Four-component solvent model
----------------------------------------------------------------------------------------------------
  SOLVENT
----------------------------------------------------------------------------------------------------

-- Miscible treatment of hydrocarbons
----------------------------------------------------------------------------------------------------
MISCIBLE
-- 1: Number of miscible residual oil saturations vs water saturations, and maximum number of
--    paramter regions
-- 2: Maximum number of saturation nodes in any table of miscible residual oil saturation vs water
--    saturation
----------------------------------------------------------------------------------------------------
-- | 1 | 2 |
     1  20 /
----------------------------------------------------------------------------------------------------

-- Start date of simulation
----------------------------------------------------------------------------------------------------
START
-- 1: Day
-- 2: Month (3-character string)
-- 3: Year
----------------------------------------------------------------------------------------------------
-- | 1 |    2 |   3 |
     1   'JAN' 2015 /
----------------------------------------------------------------------------------------------------

-- Well dimensions
----------------------------------------------------------------------------------------------------
WELLDIMS
-- 1: Maximum number of wells in the model
-- 2: Maximum number of grid blocks connected to any one well
-- 3: Maximum number of groups in the model
-- 4: Maximum number of wells in any one group
----------------------------------------------------------------------------------------------------
-- | 1 | 2 | 3 | 4 |
     2   1   1   2 /
----------------------------------------------------------------------------------------------------

-- Unified input/output
----------------------------------------------------------------------------------------------------
-- UNIFIN: Unified input files
-- UNIFIN: Unified output files
----------------------------------------------------------------------------------------------------
UNIFIN
UNIFOUT
----------------------------------------------------------------------------------------------------

-- Request output of INIT file
----------------------------------------------------------------------------------------------------
--  INIT
----------------------------------------------------------------------------------------------------

-- ECHO
-- MESSAGES
-- 8*10000  20000 10000 1000 1* /
-- NOECHO

GRID
-- *************************************************************************************************
-- INPUT OF GRID PARAMETERS
-- Basic grid geometry and petrophysical properties
-- *************************************************************************************************

-- Grid geometry units
----------------------------------------------------------------------------------------------------
GRIDUNIT
-- 1: Unit length for grid data
-- 2: Map units relative to map given in MAPAXES (MAP), or not (blank)
----------------------------------------------------------------------------------------------------
  METRES  /
----------------------------------------------------------------------------------------------------

-- Grid cell geometry
----------------------------------------------------------------------------------------------------
-- DX  : Size in x-direction
-- DY  : Size in y-direction
-- DZ  : Size in z-direction
-- TOPS: Top of each grid block
----------------------------------------------------------------------------------------------------
DX
  10*200  /
DY
  10*200  /
DZ
  10*25   /
TOPS
  10*2500 /
----------------------------------------------------------------------------------------------------

-- Petrophysical parameters
----------------------------------------------------------------------------------------------------
-- PORO : Porosity
-- PERMX: Permeability in x-direction
-- PERMY: Permeability in y-direction
-- PERMZ: Permeability in z-direction
----------------------------------------------------------------------------------------------------
PORO
  10*0.1        /
PERMX
  10*221.009415 /
PERMY
  10*221.009415 /
PERMZ
  10*22.00      /
----------------------------------------------------------------------------------------------------

-- Calculate transmissibilities from cell corner points
----------------------------------------------------------------------------------------------------
--NEWTRAN
----------------------------------------------------------------------------------------------------

-- Specify grid information output
----------------------------------------------------------------------------------------------------
GRIDFILE
-- 1: GRID output (- 0 - No information, 1 - Standard file, 2 - Extended)
-- 2: Control extended output (0 - No EGRID file, 1 - Extensible EGRID file output)
----------------------------------------------------------------------------------------------------
-- | 1 | 2 |
     0   1 /
----------------------------------------------------------------------------------------------------

PROPS
-- *************************************************************************************************
-- Pressure- and saturation dependent properties of the reservoir fluids and rocks.
-- *************************************************************************************************

-- Water PVT properties
----------------------------------------------------------------------------------------------------
PVTW
-- 1: Reference pressure
-- 2: FVF at reference pressure
-- 3: Compressibility
-- 4: Viscosity
-- 5: Viscosibility (dmu/dp)/mu
----------------------------------------------------------------------------------------------------
-- |     1 |     2 |       3 |     4 |   5 |
     277.0   1.0         0   0.318   0.0 /
--     277.0   1.038   4.67E-5   0.318   0.0 /
----------------------------------------------------------------------------------------------------


-- Dry gas PVT properties
----------------------------------------------------------------------------------------------------
PVDG
-- 1: Phase pressure
-- 2: FVF
-- 3: Viscosity
----------------------------------------------------------------------------------------------------
-- |   1 |      2  |       3 |
      30  0.04234    0.02935
     530  0.003868   0.02935 /
----------------------------------------------------------------------------------------------------

-- Solvent PVT properties
----------------------------------------------------------------------------------------------------
PVDS
-- 1: Phase pressure
-- 2: FVF
-- 3: Viscosity
----------------------------------------------------------------------------------------------------
-- |   1 |      2  |      3 |
      30  0.04234    0.2935
     530  0.003868   0.2935 /
----------------------------------------------------------------------------------------------------

-- Dead oil PVT properties
----------------------------------------------------------------------------------------------------
PVDO
-- 1: Phase pressure
-- 2: FVF
-- 3: Viscosity
----------------------------------------------------------------------------------------------------
-- |    1 |      2    |      3 |
     20.0   1.0100001   10.000
     900    1.01        10.000 /
----------------------------------------------------------------------------------------------------

-- Rock compressibility
----------------------------------------------------------------------------------------------------
ROCK
-- 1: Reference pressure
-- 2: Rock compressibility
----------------------------------------------------------------------------------------------------
-- |     1 |       2 |
     277.0   4.84E-5 /
----------------------------------------------------------------------------------------------------

-- Water relative permeability and capillary pressure
----------------------------------------------------------------------------------------------------
SWFN
-- 1: Saturation
-- 2: Relative permeability
-- 3: Water-oil capillary pressure
----------------------------------------------------------------------------------------------------
---- |    1 |   2 |   3 | linear
--       0.0  0.0   0.0
--       1.0  1.0   0.0 /
-- |   1 |   2   |   3 | quadratic
      0.0   0.0    0.0
      0.1   0.0    0.0
      0.2   0.02   0.0
      0.3   0.08   0.0
      0.4   0.18   0.0
      0.5   0.33   0.0
      0.6   0.51   0.0
      0.7   0.73   0.0
      0.8   1.00   0.0
      1.0   1.00   0.0/
----------------------------------------------------------------------------------------------------

-- Gas relative permeability and capillary pressure
----------------------------------------------------------------------------------------------------
SGFN
-- 1: Saturation
-- 2: Relative permeability
-- 3: Oil-gas capillary pressure
----------------------------------------------------------------------------------------------------
---- |   1 |   2 |   3 | linear
--     0.0   0.0   0.0
--     1.0   1.0   0.0 /
-- |   1 |   2   |   3 | quadratic
      0.0   0.0    0.0
      0.1   0.00   0.0
      0.2   0.02   0.0
      0.3   0.08   0.0
      0.4   0.18   0.0
      0.5   0.33   0.0
      0.6   0.51   0.0
      0.7   0.73   0.0
      0.8   1.00   0.0
      1.0   1.00   0.0/
----------------------------------------------------------------------------------------------------

-- Oil relative permeability and capillary pressure, 3-phase
----------------------------------------------------------------------------------------------------
SOF3
-- 1: Saturation (sO)
-- 2: Relative permeability when oil, gas and connate water are present (krOW)
-- 3: oil relative permeability when only oil and water are present (krOG)
--  |   1 |   2 |   3 |
--      0.0   0.0   0.0
--      1.0   1.0   1.0 /
      0.0   0.0     0.0 
      0.1   0.0	    0.0 
      0.2   0.02    0.02
      0.3   0.07    0.07
      0.4   0.15    0.15
      0.5   0.26    0.26
      0.6   0.41    0.41
      0.7   0.59    0.59 /
----------------------------------------------------------------------------------------------------

-- Oil relative permeability and capillary pressure, 2-phase
----------------------------------------------------------------------------------------------------
SOF2
-- 1: Saturation (sO)
-- 2: Relative permeability when oil, gas and connate water are present (krOW)
--  |   1 |   2 |
--      0.0   0.0
--      1.0   1.0 /
      0.0  0.0  
      0.1  0.0  
      0.2  0.02 
      0.3  0.07 
      0.4  0.15 
      0.5  0.26 
      0.6  0.41 
      0.7  0.59  /
----------------------------------------------------------------------------------------------------

-- Relperm multipliers for gas and solvent
----------------------------------------------------------------------------------------------------
SSFN
-- 1: Solvent to gas + solvent saturation fraction or gas to gas + solvent saturation fraction
-- 2: Gas relperm multiplier
-- 3: Solvent relperm multiplier
----------------------------------------------------------------------------------------------------
-- |   1 |   2 |   3 |
     0.0   0.0   0.0
     0.5   0.5   0.8 
     1.0   1.0   1.0 /
----------------------------------------------------------------------------------------------------

-- Saturation-dependent misciibility function
----------------------------------------------------------------------------------------------------
MISC
-- 1: Solvet to gas + solvent saturation fraction
-- 2: Miscibility
----------------------------------------------------------------------------------------------------
-- |   1 |   2 | 
     0.0   0.0
     1.0   1.0/
----------------------------------------------------------------------------------------------------

-- Pressure-dependent miscibility
----------------------------------------------------------------------------------------------------
PMISC
-- 1: Pressure
-- 2: Miscibility
--------------------------------------------------------------------------------------------------
-- |   1 |   2 |
      50     0.0
     200     1.0/
--------------------------------------------------------------------------------------------------

-- Relperm multipliers for oil and total gas
----------------------------------------------------------------------------------------------------
MSFN
-- 1: Solvent to gas + solvent saturation fraction
-- 2: Total gas relperm multiplier
-- 3: Oil relperm multiplier
----------------------------------------------------------------------------------------------------
-- |   1 |   2 |   3 |
     0.0   0.0   1.0
     1.0   1.0   0.0 /
----------------------------------------------------------------------------------------------------     

-- Phase/component surface densities
----------------------------------------------------------------------------------------------------
DENSITY
-- 1: Oil density
-- 2: Water density
-- 3: Gas density
----------------------------------------------------------------------------------------------------
-- |     1 |      2 |     3 |
     859.5   1033.0   0.80 /
----------------------------------------------------------------------------------------------------

-- Solvent component surface density
----------------------------------------------------------------------------------------------------
SDENSITY
  1 /
----------------------------------------------------------------------------------------------------

-- Todd-Longstaff mixing paramters
----------------------------------------------------------------------------------------------------
TLMIXPAR
-- 1: Viscosity mixing parameter
-- 2: Density mixing parameter
-- |   1 |   2 |
     0.7   0.7 /
----------------------------------------------------------------------------------------------------     

SOLUTION
-- *************************************************************************************************
-- INITIAL RESERVOIR STATE
-- Information describing the initial state of the reservoir
-- *************************************************************************************************

-- Pressure and contacts for hydrostatic equilibrium
----------------------------------------------------------------------------------------------------
-- C EQUIL
-- 1: Datum depth
-- 2: Pressure at datum depth
-- 3: Water-oil contact depth
-- 4: Capillary pressure at water-oil contact
-- 5: Gas-oil contact depth
-- 6: Capillary pressure at gas-oil contact
-- 7: Integer selecting initalization of live blakc-oil in under-saturated regions (>0: disgas
--    calculated from rs or pb vs depth table, <= 0: disgas set to saturated rs)
-- 8: Integer selecting initalization of vaporized oil in under-saturated regions (>0: vapoil
--    calculated from rv or pd vs depth table, <= 0: vapoil set to saturated rv)
----------------------------------------------------------------------------------------------------
-- |    1 |   2 |    3 |   4 |    5 | 6 | 7 | 8 |
-- C     2525   270   2550   0.0   2525    0.0   1   0   0 /

-- Initial pressure
----------------------------------------------------------------------------------------------------
PRESSURE
-- Initial cell pressures
   10*50 /
----------------------------------------------------------------------------------------------------   

-- Initial water saturation
----------------------------------------------------------------------------------------------------
SWAT
-- Water saturation in each cell
   10*0.2 /
----------------------------------------------------------------------------------------------------

-- Initial gas saturation
----------------------------------------------------------------------------------------------------
SGAS
-- Gas saturation in each cell
   10*0.2/
----------------------------------------------------------------------------------------------------

-- Initial solvent saturation
----------------------------------------------------------------------------------------------------
SSOL
-- Solvent saturation in each cell
   10*0.0 /
----------------------------------------------------------------------------------------------------

-- Initial dissolved gas
----------------------------------------------------------------------------------------------------
--RS
-- Dissovled gas in each cell
--   10*0.1 /
----------------------------------------------------------------------------------------------------


-- Restart output
----------------------------------------------------------------------------------------------------
RPTRST
-- Controls output to restart file
-- BASIC: Output of basic restart files: 1-6.
-- SWAT, SOIL, SGAS, SSOL: Phase saturations
-- PRES: Pressure
----------------------------------------------------------------------------------------------------
  BASIC=2
  SWAT
  SOIL
  SGAS
  SSOL
  DENO
  VOIL
  /
----------------------------------------------------------------------------------------------------

SCHEDULE
-- *************************************************************************************************
-- SET UP INJECTION SCHEDULE
-- Specify well controls and time steps for the injection schedule
-- *************************************************************************************************

-- Specify wells
----------------------------------------------------------------------------------------------------
WELSPECS
-- 1: Well name
-- 2: Name of group it belongs to
-- 3: I-location of well-head or heel
-- 4: J-location of well-head or heel
-- 5: Reference depth for bhp
-- 6: Preffered phase for the well (OIL, WATER, GAS, LIQ)
----------------------------------------------------------------------------------------------------
-- |     1  |   2 |  3 | 4 |  5 |    6 |
     'INJ'    'I'    1   1   1*  'GAS' /
     'PROD'   'P'   10   1   1*  'OIL' /
   /     
----------------------------------------------------------------------------------------------------

-- Well completion specification data
----------------------------------------------------------------------------------------------------
COMPDAT
-- 1: Well name
-- 2: I-location of connection grid blocks
-- 3: J-location of connection grid blocks
-- 4: K-location of upper connecting grid block
-- 5: K-location of lower connecting grid block
-- 6: Open/shut flag
-- 7: Saturation table number for connection relative permeabilities
-- 8: Transmissibility of the connection
-- 9: Well bore diameter at connection
----------------------------------------------------------------------------------------------------
-- |     1 |  2 | 3 | 4 | 5 |      6 |  7 |  8 |   9 |
    'INJ'     1   1   1   1   'OPEN'   1*   1*   0.1 /
    'PROD'   10   1   1   1   'OPEN'   1*   1*   0.1 /
/
----------------------------------------------------------------------------------------------------

-- Control data for injection wells
----------------------------------------------------------------------------------------------------
WCONINJE
-- 1: Well name
-- 2: Injector type
-- 3: Open/shut flag
-- 4: Control mode
-- 5: Surface flow rate or target upper limit
-- 6: Reservoir fluid volume rate target or upper limit
-- 7: bhp target or upper limit
-- 8: Transmissibility of the connection
-- 9: Well bore diameter at connection
----------------------------------------------------------------------------------------------------
-- |     1 |     2 |      3 |     4 |  5 |  6 |   7 |
     'INJ'   'GAS'   'OPEN'   'BHP'   1*   1*   200 /
/
----------------------------------------------------------------------------------------------------

-- Control data for production wells
----------------------------------------------------------------------------------------------------
WCONPROD
-- 1: Well name
-- 2: Open/shut flag
-- 3: Control mode
-- 4: Oil rate target or upper limit
-- 5: Water rate target or upper limit
----------------------------------------------------------------------------------------------------
-- |      1 |      2 |     3 |   4 |  5 |  6 |  7 |  8 |  9 |
     'PROD'   'OPEN'   'BHP'    1*   1*   1*   1*   1*   50 /
/
----------------------------------------------------------------------------------------------------

-- Solvent fration for gas injection wells
----------------------------------------------------------------------------------------------------
WSOLVENT
-- 1: Well name
-- 2: Solvent fraction
----------------------------------------------------------------------------------------------------
-- |     1 |   2 |
     'INJ'   1.0 /
/
----------------------------------------------------------------------------------------------------

-- Timesteps
----------------------------------------------------------------------------------------------------
TSTEP
-- Size of time steps
----------------------------------------------------------------------------------------------------
  31 28 31 30 31 30 31 31 30 31 30 31 
  31 28 31 30 31 30 31 31 30 31 30 31 
  31 28 31 30 31 30 31 31 30 31 30 31 
  31 28 31 30 31 30 31 31 30 31 30 31 
  31 28 31 30 31 30 31 31 30 31 30 31 
  31 28 31 30 31 30 31 31 30 31 30 31 
  31 28 31 30 31 30 31 31 30 31 30 31 
  31 28 31 30 31 30 31 31 30 31 30 31 
  31 28 31 30 31 30 31 31 30 31 30 31 
  31 28 31 30 31 30 31 31 30 31 30 31 /
----------------------------------------------------------------------------------------------------

-- Output from schedule section
----------------------------------------------------------------------------------------------------
RPTSCHED
----------------------------------------------------------------------------------------------------
  PRES SGAS SOIL SWAT /
/
----------------------------------------------------------------------------------------------------

SUMMARY
-- *************************************************************************************************
-- SPECIFY SUMMARY FILE OUTPUT
-- Specify what well information to write to the summary file
-- *************************************************************************************************

WBHP
'INJ' 'PROD'/
WWPR
'INJ' 'PROD'/
WOPR
'INJ' 'PROD'/
WGPR
'INJ' 'PROD'/
WNIR
'INJ' 'PROD'/
WNPR
'INJ' 'PROD'/

-- *************************************************************************************************

END
