RUNSPEC


-- Add inn dummy dimensions to make the file
-- a valid deck
DIMENS
   1   1    1  /

--Specify fluids
OIL
GAS

METRIC

GRID


PROPS

--PVTW
--  Pref [bar]  Bw  Cw       \mu_w [cP]  Cv
--  350           1   1.0E-7   0.15      
--/

--PVCDO
-- Pref [bar] Bo Co       \mu_o [cP] Cv
--   350        1  1.0E-7   0.15      
--/

PVDG
 100           1   0.010000
 800           0.1   0.010000
 /

PVDO
100           1   1.000000
 800           0.9   1.000000
/

SGOF
0.000000 0.000000 1.000000 0.000000
0.100000 0.100000 0.900000 0.000000
0.200000 0.200000 0.800000 0.000000
0.300000 0.300000 0.700000 0.000000
0.400000 0.400000 0.600000 0.000000
0.500000 0.500000 0.500000 0.000000
0.600000 0.600000 0.400000 0.000000
0.700000 0.700000 0.300000 0.000000
0.800000 0.800000 0.200000 0.000000
0.900000 0.900000 0.100000 0.000000
1.000000 1.000000 0.000000 0.000000
/


DENSITY
800.000000 1000.0 1.000000 
/

ROCK
  1.0  1.0E-10
/
