-- Copyright (C) 2024 SINTEF DIGITAL
-- Current simulation results for the an illustrative example for H2 storage
-- init state, schedule and mesh satnum and actnum and poro and perm are taken from the main script 
-- Adapted from SINTEF/Olav by Elyes
----------------------------------------------------------------------------
RUNSPEC
----------------------------------------------------------------------------

DIMENS
280 1 120 /

OIL
GAS
-- H2STORE
DISGAS
-- DIFFUSE
-- DISPER

METRIC

START
17 'Feb' 2023 /

EQLDIMS
/

WELLDIMS
10 60 10 20 /

TABDIMS
6 1* 101 101 /

UNIFOUT

MESSAGES
1* 1* 10 /

----------------------------------------------------------------------------
GRID
----------------------------------------------------------------------------

INIT

INCLUDE
'H2TRAP.GRDECL' /

INCLUDE
'PERM.inc' /

INCLUDE
'PORO.inc' /

COPY
PERMX PERMY /
PERMX PERMZ /
/

-- MULTIPLY
-- PERMZ 0.1 /
-- /

----------------------------------------------------------------------------
EDIT
----------------------------------------------------------------------------

INCLUDE
'PORV.inc' /

----------------------------------------------------------------------------
PROPS
----------------------------------------------------------------------------

--        OIL   WATER   GAS
DENSITY
9.98207150467e+02 1.0 0.0851
/

DIFFC
18.01528 2.016 4.5e-05 1* 1e-9  /

INCLUDE
'SGOF_H2STORAGE.txt' /


INCLUDE
'RS_PVT_H2STORAGE_SALT.inc' /


----------------------------------------------------------------------------
REGIONS
----------------------------------------------------------------------------

INCLUDE
'SATNUM_H2STORAGE.inc' /

----------------------------------------------------------------------------
SOLUTION
----------------------------------------------------------------------------

RTEMPVD
0   20.0
1.2 20.0 /

RSVD
0   0.0
100 0.0 /

EQUIL
0 1.1 1000 0 0 0 1 1 0 /

BC 
1 280 1 1 1 1 Z- FREE /
/

RPTRST
BASIC=2 DEN KRG KRO/

SUMMARY
ALL
PERFORMA

----------------------------------------------------------------------------
SCHEDULE
----------------------------------------------------------------------------

INCLUDE
'SCHEDULE.inc' /
