-- This reservoir simulation deck is made available under the Open Database
-- License: http://opendatacommons.org/licenses/odbl/1.0/. Any rights in
-- individual contents of the database are licensed under the Database Contents
-- License: http://opendatacommons.org/licenses/dbcl/1.0/

-- Copyright (C) 2015 Statoil
-- Copyright (C) 2015 SINTEF ICT, Applied Mathematics

RUNSPEC

DIMENS
20 1 5 /

GRIDOPTS
 'YES' 0 /

OIL

WATER

METRIC


START
 06  'NOV' 2011 /

EQLDIMS
 1 /

WELLDIMS
--    MAX     CONN              WELLS IN
--   WELLS   PR WELL   GROUPS     GROUP
      10       3         10          20 /


TABDIMS
--ntsfun ntpvt nssfun nppvt ntfip nrpvt ntendp
   1      1     33     60   16    60 /

AQUDIMS
-- MXNAQN   MXNAQC   NIFTBL  NRIFTB  NANAQU    NNCAMAX
    1       1        1       36      2         1000 /

REGDIMS
1   1   1   0 /

PIMTDIMS
1  51 /

NSTACK
 30 /

UNIFIN
--UNIFOUT

OPTIONS
77* 1 /

---------------------------------------------------------
--
--	Input of grid geometry
--
---------------------------------------------------------
GRID

NEWTRAN

GRIDFILE
  0 1  /

GRIDUNIT
METRES  /

INIT

MESSAGES
 8*10000  20000 10000 1000 1* /

NOECHO


--------------------------------------------------------
--
--  	Grid
--
--------------------------------------------------------

COORD
   0  0  0    0  0  1
 200  0  0  200  0  1
 400  0  0  400  0  1
 600  0  0  600  0  1
 800  0  0  800  0  1
1000  0  0 1000  0  1
1200  0  0 1200  0  1
1400  0  0 1400  0  1
1600  0  0 1600  0  1
1800  0  0 1800  0  1
2000  0  0 2000  0  1
2200  0  0 2200  0  1
2400  0  0 2400  0  1
2600  0  0 2600  0  1
2800  0  0 2800  0  1
3000  0  0 3000  0  1
3200  0  0 3200  0  1
3400  0  0 3400  0  1
3600  0  0 3600  0  1
3800  0  0 3800  0  1
4000  0  0 4000  0  1
   0  200  0    0  200  1
 200  200  0  200  200  1
 400  200  0  400  200  1
 600  200  0  600  200  1
 800  200  0  800  200  1
1000  200  0 1000  200  1
1200  200  0 1200  200  1
1400  200  0 1400  200  1
1600  200  0 1600  200  1
1800  200  0 1800  200  1
2000  200  0 2000  200  1
2200  200  0 2200  200  1
2400  200  0 2400  200  1
2600  200  0 2600  200  1
2800  200  0 2800  200  1
3000  200  0 3000  200  1
3200  200  0 3200  200  1
3400  200  0 3400  200  1
3600  200  0 3600  200  1
3800  200  0 3800  200  1
4000  200  0 4000  200  1
/

ZCORN
80*2500 80*2525
80*2525 80*2550
80*2550 80*2575
80*2575 80*2600
80*2600 80*2625
/

-- DX
-- 100*200 /
-- DY
-- 100*200 /
-- DZ
-- 100*25 /

-- TOPS
-- 20*2500
-- 20*2525
-- 20*2550
-- 20*2575
-- 20*2600 /

ACTNUM
49*1 2*0 29*1 0 18*1 0/


--------------------------------------------------------
--
--  	Input of grid parametres
--
--------------------------------------------------------

PORO
-- 100*0.1 /
0.0487055432146281
0.0805921912115628
0.109847564152659
0.120107572990569
0.0399253757649661
0.0550877629094793
0.0945636312440182
0.0960554673014396
0.115562350673839
0.119450123501600
0.0573935950934203
0.0488734491589788
0.0203466341101813
0.115243507993454
0.0768473787803720
0.0321360006003127
0.0340156909362174
0.0108209813185743
0.0788463676978731
0.0595498403591723
0.191380708842867
0.132540525497230
0.0337945053831004
0.0661595856294340
0.0307129376090402
0.0675674476987017
0.118158683166772
0.117067716666275
0.121075503986073
0.149895297327300
0.0849989963383499
0.0840857435086123
0.0968128028700096
0.111636385641450
0.108440567934560
0.0867076701968650
0.0325685872462627
0.0252792090006194
0.128312400277396
0.0684680009077612
0.137595867622648
0.125496486484693
0.0592988259098544
0.0651938635874562
0.0863762784289716
0.112445377945237
0.141235900454971
0.0975415300495556
0.118255875062940
0.146413445235877
0.0993074012536559
0.0658904244124312
0.0761693929045750
0.0785202855741162
0.0502381798285861
0.0745552452801686
0.0442269178200026
0.0555181000213153
0.0948771226183782
0.0496712548089027
0.0677458078198640
0.0923903527878770
0.0494349474014678
0.135202176037761
0.200000000000000
0.154928379792372
0.0944200519738250
0.0770911025430141
0.0829090493667701
0.168652105899565
0.163465683939272
0.115510436934914
0.0841697586336471
0.0978253097077887
0.0753577206303423
0.0702642599868637
0.0414723397108169
0.0238961284622612
0.0504757053895751
0.0767173185607870
0.01
0.0947260373282948
0.0933857368745203
0.142608786839868
0.157018304642607
0.118355663805217
0.0217818244369281
0.0222696251978434
0.0589707205213787
0.129886383022491
0.163341661529111
0.124387062403757
0.149983952264932
0.150022115377541
0.151616899500199
0.101588798866344
0.0362554023007749
0.00522785696150352
0.0796710577302660
0.140626114981580
/

PERMX
-- 100*221.009415 /
46.3383809224698
179.470698980748
146.060792176018
143.051907583182
194.986073238776
186.420952936255
203.282387545454
295.833211809828
325.529137079003
230.274942939780
241.641288267829
247.922350479874
203.289128248534
165.039914865684
102.161288491005
183.925863055424
249.178498314912
270.048859326574
357.052868388405
182.266625122824
65.9013088414946
98.9820015753799
289.605910888443
300.008266319692
188.961374185957
201.725246053986
228.190305794483
208.734612812225
238.332910224269
258.756704852107
341.527543197514
402.085193371150
119.394348293092
0
28.4554815844694
73.2029215391257
122.252277296878
152.263609170164
213.148538523940
198.515272302150
193.689748849602
288.300775359823
400.611490120841
332.830739400854
94.0307041013687
27.6016127681263
198.323074738150
86.8074543759863
190.780670456759
287.781090835098
392.638675944088
261.036245752185
101.641595200557
125.944164467786
155.405203968574
146.276313266383
115.673552404516
88.4042039384531
175.967907544905
68.2758418130164
164.232409206944
296.432886759570
256.476727887805
250.947613472850
209.778949912203
158.674908874481
305.370471499006
214.298502699624
272.384677988295
292.945909583139
227.390535975636
130.369283490625
99.2805030076733
118.861742734147
174.993396228506
217.967420884495
257.781461375342
235.074795404055
262.095025038578
87.1586923306802
287.939681175796
198.318165570081
226.038338832822
288.961620690133
186.842764293872
206.627811695368
442.018830000000
351.860646584662
227.570996245395
258.646323991204
193.097074752741
271.759688872340
280.015782191396
86.5432129510656
281.902742278530
376.359371500776
321.438141834978
393.222677971220
249.030130498358
20.9848619821440

/

PERMY
-- 100*221.009415 /
436.610534481941
290.418813601243
165.301625228445
194.305631334773
229.372612853730
253.879958128581
330.568258727493
229.507880803091
179.437833708486
239.415568749699
283.607739037746
264.971163495689
174.582915728604
250.723494388023
305.260793193531
396.313969977906
292.252526438404
218.361556166099
112.358126038363
103.092696175499
357.048062111385
297.217325257229
285.876128805088
247.597430192145
389.827887980691
360.537969716743
370.182746264068
266.872228278365
260.993787200206
315.619395632103
284.973304606452
165.959734974971
126.858038430844
137.145251803132
162.599149141590
252.609208077777
221.282264969257
134.495222461372
113.080480262055
237.584987932045
304.829982255599
300.970537819326
348.025808898850
291.353992937322
341.964930903783
332.816196236324
288.879332545075
224.041114732287
253.248810272915
255.696288904607
219.598727766550
186.851168749243
247.309630428280
175.227776933313
229.736083458486
237.953024843477
171.456029400832
0
101.308511997548
139.037378448254
195.899089615262
259.968236297931
282.402896924052
348.804150880338
289.795414473788
250.145865832426
176.235968940944
200.312466420554
217.368642004104
290.383772750352
327.455345134291
310.815552022181
228.165873695735
160.848383899399
358.904498022790
442.018830000000
281.834261476302
162.772596092013
258.290397077975
164.503156456812
227.889528723299
305.061748458180
136.350776476863
118.379161842918
282.989333174454
321.062371308190
284.646495170373
338.531711504509
398.145793237629
390.274802171421
308.339727698412
362.227879952246
290.556401788771
184.043895793768
217.843396077442
359.720700192546
285.862591465489
248.653477645863
189.489981945577
72.1909147184039

/

PERMZ
-- 100*22.00 /

23.5706207203464
21.6328745692601
32.2081180703491
35.4031303659613
29.5732278458334
13.6822035113437
8.83432700101221
10.5058451024247
28.2382128339739
44
30.9907345205876
18.2411687761166
21.2864254434388
11.0563617934754
10.3813603966124
18.5761549501283
16.6418351901917
24.5120483448028
31.5690737880327
28.2870077893291
24.5256216591506
14.1267189177369
27.3345121881033
36.1592977703898
25.4045090129301
10.8409455901420
12.8664914114785
13.1509677498418
22.5921079753673
28.0558285711223
23.9634400192428
18.4857164701994
16.0486129209962
17.1226408997066
20.7883201303134
12.6148706147030
17.2355260444867
22.9744572358648
21.8213598171248
25.8843154065812
17.9944673873123
14.9957002605628
19.2387758633971
20.4414717342698
19.6877065621176
15.0963581481038
16.3063316747243
9.01210107868015
12.1716132432509
11.8164563673392
16.3314652894909
20.8193142682023
17.2986897971320
23.2587652845959
24.4819074645710
18.1613961011363
23.9081690200271
25.6073439108182
18.8867100500258
19.9608642173602
12.2870737399087
22.2581178527030
15.8914448087504
11.3975099997686
22.4680023254877
21.6447565969570
19.2548300790898
12.4643028759371
5.96102899551329
0
15.9001594911411
18.6454080852974
18.3717322931439
20.3966122347783
13.5323507134468
16.6123125030375
29.6067372158898
26.7061411606677
11.6751827236879
1.61246440547108
14.1158309634086
23.9300613806924
26.1982500650179
18.4597657727239
15.3408753979798
19.0300859912913
11.9595560822763
9.54276930697505
8.40385182676500
5.27423212252839
13.9087151758816
13.2879253987056
15.8300470343564
16.1371343157465
13.6019931814217
17.9035589890827
31.5603904597521
28.8607425743070
16.6749863915226
2.47355061580269

/

--------------------------------------------------------------------------------

PROPS
--------------------------------------------------------------------------------
--
--    Input of fluid properties and relative permeability
--
---------------------------------------------------------


SWOF
--     	Sw	        Krw	        Kro	        Pc
	0.000000	0.000000	1.00000	        3.75633
	0.0500000	0.000860000	0.847820	1.86981
	0.100000	0.00263000	0.697460	1.23731
	0.150000	0.00524000	0.557170	0.91821
	0.200000	0.00877000	0.432860	0.72451
	0.250000	0.0133800	0.327570	0.59341
	0.300000	0.0192700	0.241770	0.49811
	0.350000	0.0267200	0.174150	0.42511
	0.400000	0.0360800	0.122370	0.36691
	0.450000	0.0478100	0.0837400	0.31911
	0.500000	0.0625000	0.0556500	0.27881
	0.550000	0.0809000	0.0357200	0.24401
	0.600000	0.103940	0.0219900	0.21351
	0.650000	0.132770	0.0128400	0.18631
	0.700000	0.168690	0.00699000	0.16161
	0.750000	0.213020	0.00346000	0.13901
	0.800000	0.266670	0.00149000	0.11801
	0.850000	0.329180	0.000510000	0.09831
	0.900000	0.397060	0.000120000	0.07961
	0.950000	0.461030	0.00001 	0.06161
	1.00000	        0.500000	0.000000	0.04408
/

PVTW
    277.0      1.038      4.67E-5    0.318       0.0 /

PVCDO
    277.0        1.001      0.0          835.0    0.0
/

ROCK
      277.0     4.84E-5 /

DENSITY
      860.04 1033.0    0.853  /  Justert 22/7
NOECHO

---------------------------------------------------------------------------------
SOLUTION

EQUIL
-- Datum    P     woc     Pc   goc    Pc  Rsvd  Rvvd
   2525.   270   2600    0.0  2200.  0.0   1*   0   0/

AQUFETP
-- Aq# depth  initPressure initVolume compressibility J 
    1  2525   270          3.18e8     3.0e-5          100 /
    2  2525   270          3.18e8     3.0e-5          100 /
    /

AQUANCON
-- Aq#   I1  I2   J1  J2  K1  K2 FACE  InfluxCoef Multiplier 
   1     1   2    1   1   1   5  I-    1*         1*         NO/
   2     19  20   1   1   1   5  I+    1*         1*         NO/
/

DEBUG
12 /


RPTRST
BASIC=2 KRO KRW KRG SWAT PRES SGAS SOIL /

RPTSOL
FIP=3  SWAT /


SUMMARY

ALL
EXCEL
SCHEDULE

OPTIONS
136* 2
/

RPTSCHED
 PRES SGAS SOIL SWAT /

RPTRST
VELOCITY
/

WELSPECS
     'INJE01' 'I'  1   1  1* 'WATER'     /
     'PROD01' 'P'  20  1  1* 'OIL'   7*  /
/

COMPDAT
    'INJE01' 6   1  4  5   'OPEN'  1* 200. 0.5 /
    'PROD01' 15  1  1  3   'OPEN'  1* 200. 0.5 /
/

WCONINJE
    'INJE01' 'WATER' 'OPEN' 'RATE' 500.00  1* 550 /
/


WCONPROD
  'PROD01' 'OPEN'  'BHP' 5* 250 /
/

TSTEP
1*1. 20*10000
/
