RUNSPEC    ================================================================
TITLE
  The MSW example

DIMENS
   25   25   5  /

START
  1 'JAN' 2019  /

OIL
WATER
GAS

UNIFIN
UNIFOUT

GRID    ================================================================

EQUALS
  DX    100   /
  DY    100   /
  DZ    6     /
  PERMX 2000  /
  PERMY 2000  /
  PERMZ 2000  /
  NTG   1    /
  PORO  0.2  /
/

TOPS
625*1000 /

PROPS  ====================================================================
SWOF
	0.000000	0.000000	1.00000	    3.75633
	0.0500000	0.000860000	0.847820	1.86981
	0.100000	0.00263000	0.697460	1.23731
	0.150000	0.00524000	0.557170	0.91821
	0.200000	0.00877000	0.432860	0.72451
	0.250000	0.0133800	0.327570	0.59341
	0.300000	0.0192700	0.241770	0.49811
	0.350000	0.0267200	0.174150	0.42511
	0.400000	0.0360800	0.122370	0.36691
	0.450000	0.0478100	0.0837400	0.31911
	0.500000	0.0625000	0.0556500	0.27881
	0.550000	0.0809000	0.0357200	0.24401
	0.600000	0.103940	0.0219900	0.21351
	0.650000	0.132770	0.0128400	0.18631
	0.700000	0.168690	0.00699000	0.16161
	0.750000	0.213020	0.00346000	0.13901
	0.800000	0.266670	0.00149000	0.11801
	0.850000	0.329180	0.000510000	0.09831
	0.900000	0.397060	0.000120000	0.07961
	0.950000	0.461030	0.00001  	0.06161
	1.00000  	0.500000	0.000000	0.04408
/

SGOF
	0.000000	0.000000	1.00000	    0.000000
	0.0500000	0.00165500	0.806888	0.000000
	0.100000	0.00691300	0.633562	0.000000
	0.150000	0.0162130	0.485506	0.000000
	0.200000	0.0299900	0.364043	0.000000
	0.250000	0.0486550	0.267589	0.000000
	0.300000	0.0725730	0.192992	0.000000
	0.350000	0.102046	0.136554	0.000000
	0.400000	0.137287	0.0946710	0.000000
	0.450000	0.178402	0.0641510	0.000000
	0.500000	0.225368	0.0423240	0.000000
	0.550000	0.278030	0.0270350	0.000000
	0.600000	0.336093	0.0165860	0.000000
	0.650000	0.399135	0.00966200	0.000000
	0.700000	0.466631	0.00525400	0.000000
	0.750000	0.538000	0.00259700	0.000000
	0.800000	0.612665	0.00111700	0.000000
	0.850000	0.690169	0.000384000	0.000000
	0.900000	0.770395	0.000088	0.000000
	0.950000	0.854218	0.000007	0.000000
	1.00000	    0.950000	0.000000	0.000000
/

DENSITY
--   O       W     G
    800    1080   0.82   /

PVTW
--    REF.PRES.  REF. FVF  COMPRESSIBILITY  REF.VISC.  VISCOSIBILITY
       234        1.012      4.28e-5        1.0        0 /
 
PVCDO
-- REF.PRES.   FVF   COMPRESSIBILITY  REF.VISC.  VISCOSIBILITY
   234         1.065    6.65e-4         20.0        0  /

ROCK
-- REF.PRES   COMPRESSIBILITY
   234          3.0e-5       /

PVDG
   30  0.04234     0.01344
   530  0.003868    0.02935
/

REGIONS   =================================================================

SOLUTION  =================================================================

EQUIL
-- Datum    P     woc     Pc    goc    Pc   Rsvd   Rvvd
   1000    234   1100    0.0   950.0   0.0   1*   0   0/   E: Garn

AQUANCON
-- Aq#   I1  I2   J1  J2   K1  K2 FACE  InfluxCoef Multiplier 
    1    1   25   1   25   5   5   K+       1*         1*         NO/
/

AQUFETP
-- Aq# depth  initPressure initVolume  compressibility      J 
    1  1030      300        3.75e+10      7.28e-5          500 /
/


SUMMARY ===================================================================

SCHEDULE ==================================================================
WELSPECS
    'PROD'   'G'  16   16     1*  'OIL'  /    
/

COMPDAT
    'PROD'  7 13  3 3  'OPEN' 2*  0.2  3*  'X'  1*/
    'PROD'  8 13  3 3  'OPEN' 2*  0.2  3*  'X'  1*/
    'PROD'  9 13  3 3  'OPEN' 2*  0.2  3*  'X'  1*/
    'PROD' 10 13  3 3  'OPEN' 2*  0.2  3*  'X'  1*/
    'PROD' 11 13  3 3  'OPEN' 2*  0.2  3*  'X'  1*/
    'PROD' 12 13  3 3  'OPEN' 2*  0.2  3*  'X'  1*/
    'PROD' 13 13  3 3  'OPEN' 2*  0.2  3*  'X'  1*/
    'PROD' 14 13  3 3  'OPEN' 2*  0.2  3*  'X'  1*/
    'PROD' 15 13  3 3  'OPEN' 2*  0.2  3*  'X'  1*/
    'PROD' 16 13  3 3  'OPEN' 2*  0.2  3*  'X'  1*/
    'PROD' 17 13  3 3  'OPEN' 2*  0.2  3*  'X'  1*/
    'PROD' 18 13  3 3  'OPEN' 2*  0.2  3*  'X'  1*/
    'PROD' 19 13  3 3  'OPEN' 2*  0.2  3*  'X'  1*/
/

WCONPROD
--'PROD' 'OPEN'  'BHP'   5*    150 / 
'PROD' 'OPEN'  'LRAT'   3*     20000 / 
/

TSTEP
20*200
/

END